Version 4
SHEET 1 880 680
WIRE -496 -384 -976 -384
WIRE 160 -384 -496 -384
WIRE -240 -304 -1040 -304
WIRE -160 -304 -240 -304
WIRE -16 -304 -80 -304
WIRE 48 -304 -16 -304
WIRE 160 -304 160 -384
WIRE 160 -304 128 -304
WIRE -16 -256 -16 -304
WIRE 160 -224 160 -304
WIRE 160 -224 80 -224
WIRE -688 -160 -816 -160
WIRE 32 -160 -688 -160
WIRE 352 -160 32 -160
WIRE 32 -96 32 -160
WIRE 112 -96 32 -96
WIRE 320 -96 256 -96
WIRE 112 -64 -128 -64
WIRE 112 -32 -32 -32
WIRE -688 -16 -688 -160
WIRE -448 -16 -688 -16
WIRE -128 -16 -128 -64
WIRE -128 -16 -304 -16
WIRE 80 0 80 -224
WIRE 112 0 80 0
WIRE -448 16 -592 16
WIRE 112 32 96 32
WIRE -448 48 -528 48
WIRE -1040 64 -1040 -304
WIRE -592 64 -592 16
WIRE -1072 80 -1360 80
WIRE -496 80 -496 -384
WIRE -448 80 -496 80
WIRE -896 96 -1008 96
WIRE -816 96 -816 -160
WIRE -816 96 -896 96
WIRE -1360 112 -1360 80
WIRE -1072 112 -1200 112
WIRE -448 112 -480 112
WIRE 352 128 352 -160
WIRE 496 128 352 128
WIRE 720 128 640 128
WIRE -592 160 -592 144
WIRE -528 160 -528 48
WIRE -528 160 -592 160
WIRE 320 160 320 -96
WIRE 496 160 320 160
WIRE -592 176 -592 160
WIRE 496 192 320 192
WIRE -1040 208 -1040 128
WIRE -976 208 -976 -384
WIRE -976 208 -1040 208
WIRE -240 224 -240 -304
WIRE 96 224 96 32
WIRE 96 224 -240 224
WIRE 496 224 400 224
WIRE -1360 256 -1360 192
WIRE 496 256 432 256
WIRE -1200 288 -1200 112
WIRE -1088 288 -1200 288
WIRE -896 288 -896 96
WIRE -896 288 -1008 288
WIRE -688 320 -688 -16
WIRE -448 320 -688 320
WIRE -32 320 -32 -32
WIRE -32 320 -304 320
WIRE 32 320 32 -96
WIRE 128 320 32 320
WIRE 320 320 320 192
WIRE 320 320 272 320
WIRE -448 352 -592 352
WIRE -128 352 -128 -16
WIRE 128 352 -128 352
WIRE -592 384 -592 352
WIRE -448 384 -528 384
WIRE -32 384 -32 320
WIRE 128 384 -32 384
WIRE -496 416 -496 80
WIRE -448 416 -496 416
WIRE 80 416 80 0
WIRE 128 416 80 416
WIRE -480 448 -480 112
WIRE -448 448 -480 448
WIRE 96 448 96 224
WIRE 128 448 96 448
WIRE -592 480 -592 464
WIRE -528 480 -528 384
WIRE -528 480 -592 480
WIRE -592 496 -592 480
WIRE -480 512 -480 448
WIRE -240 512 -240 224
WIRE -240 512 -480 512
WIRE 80 512 80 416
WIRE 400 512 400 224
WIRE 400 512 80 512
WIRE 96 544 96 448
WIRE 432 544 432 256
WIRE 432 544 96 544
WIRE -1200 608 -1200 288
WIRE -1088 608 -1200 608
WIRE 720 608 720 128
WIRE 720 608 -1008 608
FLAG -16 -256 0
FLAG -592 176 0
FLAG -592 496 0
FLAG -1360 256 0
SYMBOL neuron_unit -384 48 R0
SYMATTR InstName X1
SYMBOL neuron_unit -384 384 R0
SYMATTR InstName X2
SYMBOL neuron_unit 176 -32 R0
SYMATTR InstName X3
SYMBOL neuron_unit 192 384 R0
SYMATTR InstName X4
SYMBOL neuron_unit 560 192 R0
SYMATTR InstName X5
SYMBOL voltage -592 48 R0
WINDOW 123 0 0 Left 0
WINDOW 39 0 0 Left 0
SYMATTR InstName V1
SYMATTR Value 3.5
SYMBOL voltage -592 368 R0
WINDOW 123 0 0 Left 0
WINDOW 39 0 0 Left 0
SYMATTR InstName V2
SYMATTR Value 0.5
SYMBOL res -992 272 R90
WINDOW 0 0 56 VBottom 2
WINDOW 3 32 56 VTop 2
SYMATTR InstName R1
SYMATTR Value 10k
SYMBOL res -992 592 R90
WINDOW 0 0 56 VBottom 2
WINDOW 3 32 56 VTop 2
SYMATTR InstName R2
SYMATTR Value 10k
SYMBOL voltage -1360 96 R0
WINDOW 123 0 0 Left 0
WINDOW 39 0 0 Left 0
SYMATTR InstName V3
SYMATTR Value PULSE(2.5 5 1p 1p 1p 5m 10m)
SYMBOL voltage -64 -304 R90
WINDOW 0 -32 56 VBottom 2
WINDOW 3 32 56 VTop 2
WINDOW 123 0 0 Left 0
WINDOW 39 0 0 Left 0
SYMATTR InstName V4
SYMATTR Value 15
SYMBOL voltage 144 -304 R90
WINDOW 0 -32 56 VBottom 2
WINDOW 3 32 56 VTop 2
WINDOW 123 0 0 Left 0
WINDOW 39 0 0 Left 0
SYMATTR InstName V5
SYMATTR Value 15
SYMBOL OpAmps\\OP413 -1040 160 M180
SYMATTR InstName U1
TEXT -1392 656 Left 2 !.tran 15m uic
