Version 4
SHEET 1 880 680
WIRE 16 32 -192 32
WIRE -192 96 -192 32
WIRE 48 96 -96 96
WIRE 48 112 48 96
WIRE 80 112 48 112
WIRE 288 112 224 112
WIRE 16 144 16 32
WIRE 80 144 16 144
WIRE 16 160 -32 160
WIRE 48 160 16 160
WIRE 16 176 16 160
WIRE 48 176 48 160
WIRE 80 176 48 176
WIRE -192 192 -192 176
WIRE -96 192 -96 176
WIRE -96 192 -192 192
WIRE -32 192 -32 160
WIRE -32 192 -96 192
WIRE 80 208 -96 208
WIRE -96 240 -96 208
WIRE 80 240 48 240
WIRE -96 368 -96 320
WIRE -64 368 -96 368
WIRE 48 368 48 240
WIRE 48 368 16 368
WIRE -96 400 -96 368
FLAG -96 400 0
FLAG 288 112 o
IOPIN 288 112 Out
FLAG 16 176 0
SYMBOL neuron_unit 144 176 R0
SYMATTR InstName X1
SYMBOL voltage -96 224 R0
WINDOW 123 0 0 Left 0
WINDOW 39 0 0 Left 0
SYMATTR InstName V1
SYMATTR Value 15
SYMBOL voltage -80 368 R270
WINDOW 0 32 56 VTop 2
WINDOW 3 -32 56 VBottom 2
WINDOW 123 0 0 Left 0
WINDOW 39 0 0 Left 0
SYMATTR InstName V2
SYMATTR Value 15
SYMBOL voltage -96 80 R0
WINDOW 3 -11 -22 Left 2
WINDOW 123 0 0 Left 0
WINDOW 39 0 0 Left 0
SYMATTR InstName V3
SYMATTR Value SINE(0 1 10000)
SYMBOL voltage -192 80 R0
WINDOW 3 -215 133 Left 2
WINDOW 123 0 0 Left 0
WINDOW 39 0 0 Left 0
SYMATTR InstName V4
SYMATTR Value 1
TEXT -130 434 Left 2 !.tran 0.5m
