Version 4
SHEET 1 880 680
WIRE 464 48 288 48
WIRE 112 64 -48 64
WIRE 288 64 288 48
WIRE 288 64 208 64
WIRE 464 64 464 48
WIRE -48 96 -48 64
WIRE 112 96 0 96
WIRE 256 96 208 96
WIRE 112 128 16 128
WIRE 416 128 208 128
WIRE 112 160 64 160
WIRE 272 160 208 160
WIRE 416 160 416 128
WIRE 416 160 400 160
WIRE 464 160 464 144
WIRE 464 160 416 160
WIRE 0 176 0 96
WIRE 0 176 -16 176
WIRE 16 176 16 128
WIRE -48 192 -48 176
WIRE -16 192 -16 176
WIRE -16 192 -48 192
WIRE 400 192 400 160
WIRE 464 192 464 160
WIRE -48 224 -48 192
WIRE 16 272 16 256
WIRE 64 272 64 160
WIRE 64 272 16 272
WIRE 16 288 16 272
WIRE 272 304 272 160
WIRE 464 304 464 272
WIRE 464 304 272 304
FLAG -48 224 0
FLAG 16 288 0
FLAG 400 192 0
FLAG 256 96 o
IOPIN 256 96 Out
SYMBOL AD633 176 112 R0
SYMATTR InstName U1
SYMBOL voltage -48 80 R0
WINDOW 123 0 0 Left 0
WINDOW 39 0 0 Left 0
SYMATTR InstName V1
SYMATTR Value SINE(0 0.1 50)
SYMBOL voltage 16 160 R0
WINDOW 123 0 0 Left 0
WINDOW 39 0 0 Left 0
SYMATTR InstName V2
SYMATTR Value SINE(0 0.2 60)
SYMBOL voltage 464 48 R0
WINDOW 123 0 0 Left 0
WINDOW 39 0 0 Left 0
SYMATTR InstName V3
SYMATTR Value 15
SYMBOL voltage 464 176 R0
WINDOW 123 0 0 Left 0
WINDOW 39 0 0 Left 0
SYMATTR InstName V4
SYMATTR Value 15
TEXT 106 182 Left 2 !.tran 100u
